
Note: No compatibility mode selected!


Circuit: din_a_spice_test

Doing analysis at TEMP = 27.000000 and TNOM = 27.000000

Using SPARSE 1.3 as Direct Linear Solver

No. of Data Rows : 61
Note: Simulation executed from .control section 
