
Note: No compatibility mode selected!


Circuit: feedbackconceptnoisynullorpspice

Warning: Model issue on line 1239 :
  .model pch.3 pmos ( lmin=1.8e-07 lmax=    5.000000000000000e-07     wmin ...
unrecognized parameter (n) - ignored
unrecognized parameter (tlev) - ignored
unrecognized parameter (tlevc) - ignored
unrecognized parameter (sfvtflag) - ignored

Doing analysis at TEMP = 27.000000 and TNOM = 27.000000

Using SPARSE 1.3 as Direct Linear Solver

No. of Data Rows : 21

No. of Data Rows : 1
Note: Simulation executed from .control section 
